<?xml version="1.0" encoding="UTF-8"?>

<!-- generated on Mon Jun 14 17:59:16 2021 by SUMO duarouter Version 0.25.0
<?xml version="1.0" encoding="UTF-8"?>

<configuration xmlns:xsi="http://www.w3.org/2001/XMLSchema-instance" xsi:noNamespaceSchemaLocation="http://sumo.dlr.de/xsd/duarouterConfiguration.xsd">

    <input>
        <net-file value="grid.net.xml"/>
        <trip-files value="trips.trips.xml"/>
    </input>

    <output>
        <output-file value="86400_0_routes.rou.xml"/>
    </output>

    <processing>
        <ignore-errors value="true"/>
    </processing>

    <time>
        <begin value="0.0"/>
        <end value="86400.0"/>
    </time>

    <report>
        <no-warnings value="true"/>
        <no-step-log value="true"/>
    </report>

</configuration>
-->

<routes xmlns:xsi="http://www.w3.org/2001/XMLSchema-instance" xsi:noNamespaceSchemaLocation="http://sumo.dlr.de/xsd/routes_file.xsd">
    <vehicle id="0" depart="0.00">
        <route edges="4/12to4/11 4/11to3/11 3/11to2/11 2/11to2/10 2/10to2/9 2/9to2/8 2/8to2/7 2/7to2/6 2/6to1/6"/>
    </vehicle>
    <vehicle id="1" depart="0.10">
        <route edges="9/8to8/8 8/8to8/7 8/7to9/7 9/7to10/7 10/7to10/6 10/6to10/5 10/5to10/4 10/4to10/3 10/3to10/2 10/2to10/1 10/1to11/1 11/1to12/1 12/1to13/1 13/1to14/1 14/1to15/1 15/1to16/1 16/1to17/1 17/1to18/1 18/1to19/1 19/1to20/1 20/1to20/2"/>
    </vehicle>
    <vehicle id="2" depart="0.20">
        <route edges="8/19to8/20 8/20to9/20 9/20to10/20 10/20to10/19 10/19to10/18 10/18to11/18 11/18to12/18"/>
    </vehicle>
    <vehicle id="3" depart="0.30">
        <route edges="2/17to3/17 3/17to4/17 4/17to5/17 5/17to6/17 6/17to7/17 7/17to8/17 8/17to9/17 9/17to10/17 10/17to10/18 10/18to10/19 10/19to10/20 10/20to10/21 10/21to10/22 10/22to10/23 10/23to10/24 10/24to11/24 11/24to12/24"/>
    </vehicle>
    <vehicle id="4" depart="0.40">
        <route edges="0/19to0/20 0/20to1/20 1/20to1/19 1/19to1/18 1/18to1/17 1/17to2/17 2/17to3/17 3/17to4/17 4/17to5/17 5/17to6/17 6/17to7/17 7/17to8/17 8/17to9/17 9/17to10/17 10/17to10/18"/>
    </vehicle>
    <vehicle id="5" depart="0.50">
        <route edges="15/0to16/0 16/0to16/1 16/1to15/1 15/1to14/1 14/1to13/1 13/1to13/0 13/0to12/0"/>
    </vehicle>
    <vehicle id="6" depart="0.60">
        <route edges="21/13to21/12 21/12to20/12 20/12to20/13 20/13to20/14 20/14to20/15"/>
    </vehicle>
    <vehicle id="7" depart="0.70">
        <route edges="13/0to14/0 14/0to14/1 14/1to14/2 14/2to14/3 14/3to14/4 14/4to14/5 14/5to14/6 14/6to14/7 14/7to14/8 14/8to14/9 14/9to14/10 14/10to14/11 14/11to14/12 14/12to15/12 15/12to16/12 16/12to17/12 17/12to18/12 18/12to19/12 19/12to20/12 20/12to21/12 21/12to22/12 22/12to23/12 23/12to23/13"/>
    </vehicle>
    <vehicle id="8" depart="0.80">
        <route edges="17/11to16/11 16/11to15/11 15/11to14/11 14/11to13/11 13/11to12/11 12/11to11/11 11/11to10/11 10/11to9/11 9/11to8/11 8/11to7/11 7/11to6/11 6/11to5/11 5/11to4/11 4/11to3/11 3/11to3/10 3/10to3/9 3/9to3/8 3/8to3/7 3/7to3/6 3/6to3/5 3/5to3/4 3/4to3/3 3/3to2/3"/>
    </vehicle>
    <vehicle id="9" depart="0.90">
        <route edges="17/3to17/2 17/2to16/2 16/2to15/2 15/2to14/2 14/2to13/2 13/2to12/2 12/2to12/1 12/1to12/0 12/0to13/0"/>
    </vehicle>
    <vehicle id="10" depart="1.00">
        <route edges="12/4to12/5 12/5to11/5 11/5to10/5 10/5to10/6 10/6to10/7 10/7to9/7 9/7to8/7 8/7to8/6"/>
    </vehicle>
    <vehicle id="11" depart="1.10">
        <route edges="22/1to22/2 22/2to21/2 21/2to21/3 21/3to21/4 21/4to21/5 21/5to21/6 21/6to21/7 21/7to21/8 21/8to21/9 21/9to20/9"/>
    </vehicle>
    <vehicle id="12" depart="1.20">
        <route edges="21/6to20/6 20/6to19/6 19/6to18/6 18/6to17/6 17/6to16/6 16/6to15/6 15/6to14/6 14/6to13/6 13/6to12/6 12/6to11/6 11/6to10/6 10/6to9/6 9/6to8/6 8/6to7/6 7/6to6/6 6/6to5/6 5/6to4/6 4/6to3/6 3/6to2/6 2/6to2/5 2/5to2/4 2/4to2/3 2/3to1/3"/>
    </vehicle>
    <vehicle id="13" depart="1.30">
        <route edges="12/12to12/13 12/13to11/13 11/13to10/13 10/13to9/13 9/13to8/13 8/13to7/13 7/13to6/13 6/13to5/13 5/13to4/13 4/13to3/13 3/13to3/14 3/14to3/15 3/15to3/16 3/16to3/17 3/17to3/18 3/18to3/19 3/19to3/20 3/20to4/20"/>
    </vehicle>
    <vehicle id="14" depart="1.40">
        <route edges="23/9to23/8 23/8to22/8 22/8to21/8 21/8to20/8 20/8to19/8 19/8to18/8 18/8to17/8 17/8to16/8 16/8to15/8 15/8to14/8 14/8to13/8 13/8to12/8 12/8to11/8 11/8to10/8 10/8to9/8 9/8to8/8 8/8to7/8 7/8to6/8 6/8to5/8"/>
    </vehicle>
    <vehicle id="15" depart="1.50">
        <route edges="19/4to18/4 18/4to17/4 17/4to16/4 16/4to15/4 15/4to14/4 14/4to13/4 13/4to12/4 12/4to11/4 11/4to10/4 10/4to9/4 9/4to8/4 8/4to7/4 7/4to6/4 6/4to5/4 5/4to4/4 4/4to3/4 3/4to2/4 2/4to1/4 1/4to0/4 0/4to0/3 0/3to0/2 0/2to0/1 0/1to1/1"/>
    </vehicle>
    <vehicle id="16" depart="1.60">
        <route edges="17/16to18/16 18/16to19/16 19/16to20/16 20/16to20/15 20/15to19/15"/>
    </vehicle>
    <vehicle id="17" depart="1.70">
        <route edges="21/3to21/2 21/2to20/2 20/2to19/2 19/2to18/2 18/2to17/2 17/2to16/2 16/2to15/2 15/2to15/3 15/3to15/4 15/4to15/5 15/5to15/6 15/6to15/7 15/7to15/8 15/8to15/9 15/9to15/10 15/10to15/11 15/11to15/12 15/12to15/13 15/13to15/14 15/14to15/15 15/15to15/16 15/16to15/17 15/17to15/18 15/18to15/19 15/19to15/20 15/20to15/21 15/21to15/22 15/22to15/23"/>
    </vehicle>
    <vehicle id="18" depart="1.80">
        <route edges="17/17to17/18 17/18to18/18 18/18to18/17 18/17to18/16 18/16to18/15 18/15to18/14 18/14to18/13 18/13to18/12 18/12to18/11 18/11to18/10 18/10to18/9 18/9to18/8 18/8to18/7 18/7to18/6 18/6to18/5 18/5to18/4 18/4to19/4"/>
    </vehicle>
    <vehicle id="19" depart="1.90">
        <route edges="7/22to8/22 8/22to9/22 9/22to10/22 10/22to10/21 10/21to10/20 10/20to10/19 10/19to10/18 10/18to10/17 10/17to10/16 10/16to10/15 10/15to11/15 11/15to11/16"/>
    </vehicle>
    <vehicle id="20" depart="2.00">
        <route edges="11/20to11/19 11/19to10/19 10/19to9/19 9/19to8/19 8/19to8/18 8/18to9/18"/>
    </vehicle>
    <vehicle id="21" depart="2.10">
        <route edges="21/10to21/11 21/11to20/11 20/11to19/11 19/11to18/11 18/11to17/11 17/11to16/11 16/11to15/11 15/11to14/11 14/11to13/11 13/11to12/11 12/11to11/11 11/11to10/11 10/11to9/11 9/11to8/11 8/11to7/11 7/11to6/11 6/11to5/11 5/11to4/11 4/11to3/11 3/11to2/11 2/11to1/11 1/11to0/11 0/11to0/10 0/10to0/9 0/9to0/8 0/8to0/7 0/7to0/6 0/6to0/5 0/5to0/4 0/4to0/3 0/3to0/2 0/2to0/1 0/1to1/1"/>
    </vehicle>
    <vehicle id="22" depart="2.20">
        <route edges="13/20to13/19 13/19to13/18 13/18to13/17 13/17to13/16 13/16to13/15 13/15to13/14 13/14to13/13 13/13to13/12 13/12to13/11 13/11to13/10 13/10to13/9 13/9to13/8 13/8to13/7 13/7to13/6 13/6to14/6 14/6to15/6 15/6to16/6 16/6to17/6 17/6to17/5 17/5to16/5"/>
    </vehicle>
    <vehicle id="23" depart="2.30">
        <route edges="2/7to2/6 2/6to2/5 2/5to3/5 3/5to4/5 4/5to5/5 5/5to6/5"/>
    </vehicle>
    <vehicle id="24" depart="2.40">
        <route edges="23/17to23/16 23/16to22/16 22/16to21/16 21/16to20/16 20/16to19/16 19/16to18/16 18/16to17/16 17/16to16/16 16/16to15/16 15/16to14/16 14/16to13/16 13/16to12/16 12/16to12/17"/>
    </vehicle>
    <vehicle id="25" depart="2.50">
        <route edges="23/6to23/7 23/7to23/8 23/8to23/9 23/9to23/10 23/10to23/11 23/11to23/12 23/12to23/13 23/13to23/14 23/14to23/15 23/15to23/16 23/16to23/17 23/17to23/18 23/18to23/19 23/19to23/20 23/20to23/21 23/21to24/21 24/21to24/22"/>
    </vehicle>
    <vehicle id="26" depart="2.60">
        <route edges="22/22to22/23 22/23to21/23 21/23to20/23 20/23to20/22 20/22to20/21 20/21to20/20 20/20to20/19 20/19to20/18 20/18to20/17 20/17to20/16 20/16to20/15 20/15to20/14 20/14to20/13 20/13to20/12 20/12to20/11 20/11to20/10 20/10to20/9 20/9to20/8 20/8to20/7 20/7to20/6 20/6to20/5 20/5to20/4 20/4to20/3 20/3to20/2 20/2to20/1 20/1to20/0 20/0to19/0 19/0to19/1"/>
    </vehicle>
    <vehicle id="27" depart="2.70">
        <route edges="21/19to20/19 20/19to19/19 19/19to18/19 18/19to17/19 17/19to16/19 16/19to15/19 15/19to14/19 14/19to13/19 13/19to12/19 12/19to11/19 11/19to10/19 10/19to10/18 10/18to10/17 10/17to10/16 10/16to10/15 10/15to10/14 10/14to10/13 10/13to10/12 10/12to10/11 10/11to10/10 10/10to10/9 10/9to10/8 10/8to10/7 10/7to10/6 10/6to10/5 10/5to10/4 10/4to10/3 10/3to9/3 9/3to8/3"/>
    </vehicle>
    <vehicle id="28" depart="2.80">
        <route edges="19/17to19/16 19/16to18/16 18/16to18/17 18/17to18/18 18/18to18/19 18/19to18/20 18/20to19/20 19/20to19/19"/>
    </vehicle>
    <vehicle id="29" depart="2.90">
        <route edges="7/8to8/8 8/8to9/8 9/8to10/8 10/8to10/9 10/9to10/10 10/10to10/11 10/11to10/12 10/12to10/13 10/13to10/14 10/14to10/15 10/15to10/16 10/16to10/17 10/17to11/17 11/17to12/17 12/17to13/17 13/17to14/17 14/17to15/17 15/17to16/17 16/17to17/17 17/17to18/17 18/17to19/17 19/17to20/17 20/17to21/17 21/17to21/16"/>
    </vehicle>
    <vehicle id="30" depart="3.00">
        <route edges="15/20to15/21 15/21to14/21 14/21to13/21 13/21to12/21 12/21to11/21 11/21to10/21 10/21to9/21 9/21to8/21 8/21to8/20 8/20to8/19 8/19to8/18 8/18to8/17 8/17to8/16 8/16to8/15 8/15to8/14 8/14to8/13 8/13to8/12 8/12to8/11 8/11to8/10 8/10to8/9 8/9to8/8 8/8to8/7 8/7to8/6 8/6to7/6"/>
    </vehicle>
    <vehicle id="31" depart="3.10">
        <route edges="2/24to3/24 3/24to4/24 4/24to5/24 5/24to6/24 6/24to7/24 7/24to8/24 8/24to9/24 9/24to10/24 10/24to10/23 10/23to10/22 10/22to10/21 10/21to10/20 10/20to10/19 10/19to10/18 10/18to10/17 10/17to10/16 10/16to10/15 10/15to10/14 10/14to10/13 10/13to10/12 10/12to10/11 10/11to10/10 10/10to10/9 10/9to10/8 10/8to10/7 10/7to10/6 10/6to10/5 10/5to10/4 10/4to10/3 10/3to10/2 10/2to10/1 10/1to11/1 11/1to12/1 12/1to13/1 13/1to14/1 14/1to15/1 15/1to15/0 15/0to14/0"/>
    </vehicle>
    <vehicle id="32" depart="3.20">
        <route edges="13/5to14/5 14/5to14/4 14/4to13/4 13/4to12/4 12/4to11/4 11/4to11/3 11/3to11/2 11/2to11/1 11/1to11/0 11/0to12/0"/>
    </vehicle>
    <vehicle id="33" depart="3.30">
        <route edges="20/5to20/6 20/6to19/6 19/6to18/6 18/6to17/6 17/6to16/6 16/6to15/6 15/6to15/7 15/7to15/8 15/8to15/9 15/9to15/10 15/10to15/11 15/11to15/12 15/12to15/13 15/13to15/14 15/14to14/14 14/14to14/13"/>
    </vehicle>
    <vehicle id="34" depart="3.40">
        <route edges="7/16to6/16 6/16to6/15 6/15to7/15 7/15to8/15 8/15to9/15 9/15to10/15 10/15to10/14 10/14to11/14 11/14to12/14 12/14to13/14 13/14to13/13 13/13to12/13"/>
    </vehicle>
    <vehicle id="35" depart="3.50">
        <route edges="4/15to3/15 3/15to3/16 3/16to4/16 4/16to5/16 5/16to6/16 6/16to7/16 7/16to8/16 8/16to9/16 9/16to10/16 10/16to10/17 10/17to10/18 10/18to10/19 10/19to10/20 10/20to10/21 10/21to10/22 10/22to10/23 10/23to11/23 11/23to12/23 12/23to13/23 13/23to14/23 14/23to15/23 15/23to16/23 16/23to17/23 17/23to18/23 18/23to19/23 19/23to20/23 20/23to21/23 21/23to22/23 22/23to22/24"/>
    </vehicle>
    <vehicle id="36" depart="3.60">
        <route edges="6/21to6/20 6/20to7/20 7/20to8/20 8/20to9/20 9/20to10/20 10/20to10/19 10/19to10/18 10/18to11/18 11/18to12/18 12/18to13/18 13/18to14/18 14/18to15/18 15/18to16/18 16/18to17/18 17/18to18/18"/>
    </vehicle>
    <vehicle id="37" depart="3.70">
        <route edges="15/19to15/20 15/20to14/20 14/20to13/20 13/20to12/20 12/20to11/20 11/20to10/20 10/20to9/20 9/20to8/20 8/20to7/20 7/20to6/20 6/20to5/20 5/20to4/20 4/20to4/19 4/19to4/18 4/18to4/17"/>
    </vehicle>
    <vehicle id="38" depart="3.80">
        <route edges="3/18to3/19 3/19to4/19 4/19to4/18 4/18to4/17 4/17to4/16 4/16to4/15 4/15to4/14 4/14to4/13 4/13to4/12 4/12to4/11 4/11to4/10 4/10to4/9 4/9to4/8 4/8to4/7 4/7to4/6 4/6to4/5 4/5to4/4 4/4to5/4 5/4to5/3"/>
    </vehicle>
    <vehicle id="39" depart="3.90">
        <route edges="13/2to14/2 14/2to14/3 14/3to14/4 14/4to14/5 14/5to14/6 14/6to14/7 14/7to14/8 14/8to14/9 14/9to14/10 14/10to14/11 14/11to14/12 14/12to14/13 14/13to14/14 14/14to14/15 14/15to14/16 14/16to14/17 14/17to14/18 14/18to14/19 14/19to15/19 15/19to16/19 16/19to17/19 17/19to18/19 18/19to19/19 19/19to20/19 20/19to20/18"/>
    </vehicle>
    <vehicle id="40" depart="4.00">
        <route edges="21/6to21/5 21/5to20/5 20/5to19/5 19/5to18/5 18/5to17/5 17/5to16/5 16/5to15/5 15/5to14/5 14/5to13/5 13/5to12/5 12/5to11/5 11/5to10/5 10/5to9/5 9/5to8/5 8/5to7/5 7/5to6/5 6/5to5/5 5/5to4/5 4/5to3/5 3/5to3/4 3/4to3/3 3/3to4/3"/>
    </vehicle>
    <vehicle id="41" depart="4.10">
        <route edges="20/21to21/21 21/21to21/22 21/22to20/22 20/22to19/22 19/22to18/22 18/22to17/22 17/22to16/22 16/22to15/22 15/22to14/22 14/22to13/22 13/22to12/22 12/22to11/22 11/22to10/22 10/22to9/22 9/22to8/22 8/22to7/22 7/22to6/22 6/22to5/22 5/22to4/22 4/22to3/22 3/22to2/22 2/22to1/22 1/22to1/23 1/23to0/23 0/23to0/22"/>
    </vehicle>
    <vehicle id="42" depart="4.20">
        <route edges="24/16to24/15 24/15to23/15 23/15to22/15 22/15to21/15 21/15to20/15 20/15to19/15 19/15to18/15 18/15to18/14 18/14to18/13 18/13to18/12 18/12to18/11 18/11to18/10 18/10to18/9 18/9to18/8 18/8to18/7 18/7to18/6 18/6to18/5 18/5to18/4 18/4to18/3 18/3to18/2 18/2to19/2"/>
    </vehicle>
    <vehicle id="43" depart="4.30">
        <route edges="18/22to17/22 17/22to17/21 17/21to17/20 17/20to17/19 17/19to17/18 17/18to17/17 17/17to17/16 17/16to17/15 17/15to17/14 17/14to17/13 17/13to17/12 17/12to17/11 17/11to17/10 17/10to17/9 17/9to18/9 18/9to19/9 19/9to20/9 20/9to21/9 21/9to22/9 22/9to23/9 23/9to23/10"/>
    </vehicle>
    <vehicle id="44" depart="4.40">
        <route edges="7/15to6/15 6/15to5/15 5/15to4/15 4/15to3/15 3/15to2/15 2/15to2/14 2/14to2/13 2/13to2/12 2/12to2/11 2/11to2/10 2/10to2/9 2/9to2/8 2/8to2/7 2/7to2/6 2/6to2/5 2/5to2/4 2/4to2/3 2/3to2/2"/>
    </vehicle>
    <vehicle id="45" depart="4.50">
        <route edges="4/23to4/22 4/22to3/22 3/22to3/21 3/21to3/20 3/20to3/19 3/19to3/18 3/18to3/17 3/17to3/16 3/16to3/15 3/15to3/14 3/14to3/13 3/13to3/12 3/12to3/11 3/11to3/10 3/10to3/9 3/9to3/8 3/8to3/7 3/7to3/6 3/6to3/5 3/5to3/4 3/4to3/3 3/3to3/2 3/2to3/1 3/1to3/0 3/0to2/0"/>
    </vehicle>
    <vehicle id="46" depart="4.60">
        <route edges="19/1to18/1 18/1to18/2 18/2to18/3 18/3to18/4 18/4to18/5 18/5to18/6 18/6to18/7 18/7to18/8 18/8to18/9 18/9to18/10 18/10to18/11 18/11to18/12 18/12to18/13 18/13to18/14 18/14to18/15 18/15to18/16 18/16to18/17 18/17to19/17 19/17to20/17 20/17to21/17 21/17to22/17 22/17to23/17 23/17to24/17 24/17to24/18"/>
    </vehicle>
    <vehicle id="47" depart="4.70">
        <route edges="16/4to16/5 16/5to15/5 15/5to14/5 14/5to13/5 13/5to12/5 12/5to11/5 11/5to10/5 10/5to10/6 10/6to10/7 10/7to9/7 9/7to8/7 8/7to8/6"/>
    </vehicle>
    <vehicle id="48" depart="4.80">
        <route edges="1/20to1/19 1/19to2/19 2/19to3/19 3/19to4/19 4/19to5/19 5/19to6/19 6/19to7/19 7/19to8/19 8/19to9/19 9/19to10/19 10/19to10/18 10/18to10/17 10/17to10/16 10/16to10/15 10/15to10/14 10/14to10/13 10/13to10/12 10/12to10/11 10/11to10/10 10/10to10/9 10/9to10/8 10/8to10/7 10/7to10/6 10/6to10/5 10/5to10/4 10/4to10/3 10/3to10/2 10/2to11/2 11/2to12/2 12/2to13/2 13/2to13/1"/>
    </vehicle>
    <vehicle id="49" depart="4.90">
        <route edges="11/2to11/3 11/3to10/3 10/3to9/3 9/3to8/3 8/3to7/3 7/3to7/2 7/2to7/1 7/1to7/0 7/0to6/0"/>
    </vehicle>
    <vehicle id="50" depart="5.00">
        <route edges="11/23to11/22 11/22to11/21 11/21to11/20 11/20to11/19 11/19to11/18 11/18to11/17 11/17to11/16 11/16to11/15 11/15to12/15 12/15to13/15"/>
    </vehicle>
    <vehicle id="51" depart="5.10">
        <route edges="14/24to13/24 13/24to12/24 12/24to11/24 11/24to11/23 11/23to11/22 11/22to11/21 11/21to11/20 11/20to10/20 10/20to10/21"/>
    </vehicle>
    <vehicle id="52" depart="5.20">
        <route edges="23/15to23/16 23/16to22/16 22/16to21/16 21/16to20/16 20/16to19/16 19/16to18/16 18/16to17/16 17/16to17/17 17/17to17/18 17/18to17/19 17/19to17/20 17/20to17/21 17/21to17/22 17/22to17/23 17/23to17/24"/>
    </vehicle>
    <vehicle id="53" depart="5.30">
        <route edges="4/3to3/3 3/3to3/4 3/4to4/4 4/4to5/4 5/4to6/4 6/4to7/4 7/4to8/4 8/4to9/4 9/4to10/4 10/4to10/5 10/5to10/6 10/6to10/7 10/7to10/8 10/8to10/9 10/9to10/10 10/10to10/11 10/11to11/11 11/11to12/11 12/11to13/11 13/11to13/10"/>
    </vehicle>
    <vehicle id="54" depart="5.40">
        <route edges="6/10to6/9 6/9to5/9 5/9to4/9 4/9to3/9 3/9to2/9 2/9to2/10 2/10to2/11 2/11to2/12 2/12to2/13 2/13to2/14 2/14to2/15 2/15to2/16 2/16to2/17 2/17to2/18 2/18to2/19"/>
    </vehicle>
    <vehicle id="55" depart="5.50">
        <route edges="17/24to16/24 16/24to15/24 15/24to14/24 14/24to13/24 13/24to12/24 12/24to11/24 11/24to10/24 10/24to9/24 9/24to8/24 8/24to7/24 7/24to6/24 6/24to5/24 5/24to4/24 4/24to3/24 3/24to3/23 3/23to3/22 3/22to3/21 3/21to3/20 3/20to3/19 3/19to3/18 3/18to3/17 3/17to3/16 3/16to3/15 3/15to3/14 3/14to3/13 3/13to3/12 3/12to3/11 3/11to3/10 3/10to3/9 3/9to3/8 3/8to2/8 2/8to2/9"/>
    </vehicle>
    <vehicle id="56" depart="5.60">
        <route edges="12/6to12/7 12/7to12/8 12/8to12/9 12/9to12/10 12/10to12/11 12/11to12/12 12/12to12/13 12/13to12/14 12/14to12/15 12/15to12/16 12/16to12/17 12/17to12/18 12/18to12/19 12/19to12/20 12/20to12/21 12/21to12/22 12/22to13/22 13/22to14/22 14/22to15/22 15/22to15/21"/>
    </vehicle>
    <vehicle id="57" depart="5.70">
        <route edges="19/19to19/20 19/20to18/20 18/20to17/20 17/20to16/20 16/20to15/20 15/20to14/20 14/20to13/20 13/20to12/20 12/20to11/20 11/20to10/20 10/20to9/20 9/20to8/20 8/20to7/20 7/20to6/20 6/20to5/20 5/20to5/21 5/21to5/22 5/22to6/22"/>
    </vehicle>
    <vehicle id="58" depart="5.80">
        <route edges="10/9to10/10 10/10to9/10 9/10to8/10 8/10to7/10 7/10to6/10 6/10to5/10 5/10to4/10 4/10to3/10 3/10to2/10 2/10to2/11 2/11to2/12 2/12to2/13 2/13to2/14 2/14to2/15 2/15to2/16 2/16to2/17 2/17to2/18 2/18to2/19 2/19to2/20 2/20to2/21 2/21to2/22 2/22to2/23 2/23to2/24 2/24to1/24"/>
    </vehicle>
    <vehicle id="59" depart="5.90">
        <route edges="2/14to3/14 3/14to4/14 4/14to5/14 5/14to6/14 6/14to7/14 7/14to8/14 8/14to9/14 9/14to10/14 10/14to10/13 10/13to10/12 10/12to10/11 10/11to10/10 10/10to10/9 10/9to10/8 10/8to10/7 10/7to10/6 10/6to10/5 10/5to10/4 10/4to10/3 10/3to10/2 10/2to10/1 10/1to11/1 11/1to12/1 12/1to13/1 13/1to14/1 14/1to15/1 15/1to16/1 16/1to17/1 17/1to18/1 18/1to19/1 19/1to20/1 20/1to21/1 21/1to21/0 21/0to20/0"/>
    </vehicle>
    <vehicle id="60" depart="6.00">
        <route edges="1/7to0/7 0/7to0/6 0/6to0/5 0/5to0/4 0/4to0/3 0/3to0/2 0/2to0/1 0/1to1/1 1/1to2/1 2/1to3/1 3/1to4/1 4/1to5/1 5/1to6/1 6/1to7/1 7/1to8/1 8/1to8/2"/>
    </vehicle>
    <vehicle id="61" depart="6.10">
        <route edges="19/21to20/21 20/21to20/20 20/20to20/19 20/19to20/18 20/18to20/17 20/17to20/16 20/16to19/16 19/16to19/17"/>
    </vehicle>
    <vehicle id="62" depart="6.20">
        <route edges="14/3to14/4 14/4to13/4 13/4to12/4 12/4to11/4 11/4to10/4 10/4to9/4 9/4to8/4 8/4to7/4 7/4to6/4 6/4to5/4 5/4to4/4 4/4to3/4 3/4to3/5 3/5to3/6 3/6to3/7 3/7to3/8 3/8to3/9 3/9to3/10 3/10to3/11 3/11to3/12 3/12to3/13 3/13to3/14 3/14to3/15 3/15to3/16 3/16to3/17 3/17to3/18 3/18to3/19 3/19to3/20 3/20to3/21 3/21to3/22 3/22to2/22"/>
    </vehicle>
    <vehicle id="63" depart="6.30">
        <route edges="23/14to23/15 23/15to22/15 22/15to21/15 21/15to20/15 20/15to19/15 19/15to18/15 18/15to17/15 17/15to16/15 16/15to16/16 16/16to16/17 16/17to16/18 16/18to16/19 16/19to16/20 16/20to17/20"/>
    </vehicle>
    <vehicle id="64" depart="6.40">
        <route edges="21/3to20/3 20/3to19/3 19/3to18/3 18/3to17/3 17/3to16/3 16/3to15/3 15/3to14/3 14/3to13/3 13/3to12/3 12/3to11/3 11/3to10/3 10/3to9/3 9/3to8/3 8/3to7/3 7/3to6/3 6/3to5/3 5/3to4/3 4/3to3/3 3/3to2/3 2/3to1/3 1/3to1/4 1/4to1/5 1/5to1/6 1/6to1/7 1/7to1/8 1/8to1/9 1/9to1/10 1/10to1/11 1/11to1/12 1/12to1/13 1/13to1/14 1/14to1/15 1/15to1/16 1/16to1/17 1/17to1/18 1/18to1/19 1/19to1/20 1/20to1/21 1/21to1/22 1/22to0/22"/>
    </vehicle>
    <vehicle id="65" depart="6.50">
        <route edges="16/20to16/21 16/21to15/21 15/21to14/21 14/21to13/21 13/21to12/21 12/21to11/21 11/21to10/21 10/21to9/21 9/21to8/21 8/21to7/21 7/21to6/21 6/21to5/21 5/21to4/21 4/21to3/21 3/21to2/21 2/21to1/21 1/21to0/21 0/21to0/22"/>
    </vehicle>
    <vehicle id="66" depart="6.60">
        <route edges="19/6to19/7 19/7to18/7 18/7to17/7 17/7to16/7 16/7to15/7 15/7to14/7 14/7to13/7 13/7to12/7 12/7to11/7 11/7to10/7 10/7to10/8 10/8to10/9 10/9to10/10 10/10to10/11 10/11to10/12 10/12to10/13 10/13to10/14 10/14to10/15 10/15to10/16 10/16to10/17 10/17to10/18 10/18to10/19 10/19to10/20 10/20to10/21 10/21to10/22 10/22to9/22"/>
    </vehicle>
    <vehicle id="67" depart="6.70">
        <route edges="22/22to22/23 22/23to21/23 21/23to20/23 20/23to19/23 19/23to18/23 18/23to17/23 17/23to16/23 16/23to16/22 16/22to16/21 16/21to16/20 16/20to16/19 16/19to16/18 16/18to16/17 16/17to16/16 16/16to16/15 16/15to16/14 16/14to16/13 16/13to16/12"/>
    </vehicle>
    <vehicle id="68" depart="6.80">
        <route edges="0/3to0/4 0/4to0/5 0/5to0/6 0/6to0/7 0/7to0/8 0/8to0/9 0/9to0/10 0/10to0/11 0/11to0/12 0/12to0/13 0/13to0/14 0/14to0/15 0/15to1/15 1/15to1/16 1/16to0/16 0/16to0/15"/>
    </vehicle>
    <vehicle id="69" depart="6.90">
        <route edges="1/14to2/14 2/14to3/14 3/14to4/14 4/14to5/14 5/14to6/14 6/14to7/14 7/14to8/14 8/14to9/14 9/14to10/14 10/14to10/13 10/13to10/12 10/12to10/11 10/11to10/10 10/10to10/9 10/9to10/8 10/8to10/7 10/7to10/6 10/6to10/5 10/5to10/4 10/4to10/3 10/3to10/2 10/2to10/1 10/1to11/1 11/1to12/1 12/1to13/1 13/1to14/1 14/1to15/1 15/1to16/1 16/1to17/1 17/1to18/1 18/1to19/1 19/1to20/1 20/1to21/1 21/1to22/1 22/1to23/1 23/1to24/1 24/1to24/0"/>
    </vehicle>
    <vehicle id="70" depart="7.00">
        <route edges="17/21to17/20 17/20to16/20 16/20to15/20 15/20to15/19 15/19to15/18 15/18to16/18"/>
    </vehicle>
    <vehicle id="71" depart="7.10">
        <route edges="4/12to4/13 4/13to5/13 5/13to6/13 6/13to7/13 7/13to8/13 8/13to9/13 9/13to10/13 10/13to10/14 10/14to10/15 10/15to10/16 10/16to10/17 10/17to10/18 10/18to10/19 10/19to11/19 11/19to11/20 11/20to10/20"/>
    </vehicle>
    <vehicle id="72" depart="7.20">
        <route edges="18/9to17/9 17/9to17/10 17/10to17/11 17/11to17/12 17/12to17/13 17/13to17/14 17/14to17/15 17/15to17/16 17/16to17/17 17/17to17/18 17/18to17/19 17/19to18/19 18/19to19/19 19/19to20/19 20/19to21/19 21/19to22/19 22/19to22/18"/>
    </vehicle>
    <vehicle id="73" depart="7.30">
        <route edges="6/22to5/22 5/22to4/22 4/22to3/22 3/22to2/22 2/22to1/22 1/22to1/21 1/21to1/20 1/20to1/19 1/19to1/18 1/18to1/17 1/17to1/16 1/16to1/15 1/15to0/15 0/15to0/16"/>
    </vehicle>
    <vehicle id="74" depart="7.40">
        <route edges="20/24to20/23 20/23to19/23 19/23to18/23 18/23to18/22 18/22to18/21 18/21to18/20 18/20to18/19 18/19to18/18 18/18to18/17 18/17to18/16 18/16to18/15 18/15to18/14 18/14to18/13 18/13to18/12 18/12to18/11 18/11to18/10 18/10to18/9 18/9to18/8 18/8to19/8"/>
    </vehicle>
    <vehicle id="75" depart="7.50">
        <route edges="3/8to4/8 4/8to4/7 4/7to4/6 4/6to4/5 4/5to4/4 4/4to4/3 4/3to5/3"/>
    </vehicle>
    <vehicle id="76" depart="7.60">
        <route edges="18/3to17/3 17/3to17/4 17/4to17/5 17/5to17/6 17/6to17/7 17/7to17/8 17/8to17/9 17/9to17/10 17/10to17/11 17/11to17/12 17/12to17/13 17/13to17/14 17/14to17/15 17/15to18/15 18/15to19/15 19/15to19/16"/>
    </vehicle>
    <vehicle id="77" depart="7.70">
        <route edges="9/1to8/1 8/1to7/1 7/1to6/1 6/1to5/1 5/1to4/1 4/1to4/2 4/2to4/3 4/3to4/4 4/4to4/5 4/5to4/6 4/6to4/7 4/7to4/8 4/8to3/8"/>
    </vehicle>
    <vehicle id="78" depart="7.80">
        <route edges="11/0to10/0 10/0to9/0 9/0to8/0 8/0to8/1 8/1to8/2 8/2to8/3 8/3to8/4 8/4to8/5 8/5to8/6 8/6to8/7 8/7to8/8"/>
    </vehicle>
    <vehicle id="79" depart="7.90">
        <route edges="1/11to1/10 1/10to1/9 1/9to2/9 2/9to3/9 3/9to4/9 4/9to5/9 5/9to6/9"/>
    </vehicle>
    <vehicle id="80" depart="8.00">
        <route edges="0/21to0/22 0/22to1/22 1/22to1/21 1/21to1/20 1/20to1/19 1/19to1/18 1/18to1/17 1/17to1/16 1/16to1/15 1/15to1/14 1/14to1/13 1/13to1/12 1/12to1/11 1/11to1/10 1/10to1/9 1/9to2/9 2/9to3/9 3/9to4/9 4/9to4/8"/>
    </vehicle>
    <vehicle id="81" depart="8.10">
        <route edges="8/21to9/21 9/21to10/21 10/21to10/20 10/20to10/19 10/19to10/18 10/18to10/17 10/17to10/16 10/16to10/15 10/15to10/14 10/14to10/13 10/13to10/12 10/12to10/11 10/11to10/10 10/10to10/9 10/9to10/8 10/8to10/7 10/7to10/6 10/6to10/5 10/5to10/4 10/4to10/3 10/3to10/2 10/2to10/1 10/1to11/1 11/1to12/1 12/1to13/1 13/1to14/1 14/1to15/1 15/1to16/1 16/1to17/1 17/1to17/0"/>
    </vehicle>
    <vehicle id="82" depart="8.20">
        <route edges="8/8to8/9 8/9to9/9 9/9to10/9 10/9to10/10 10/10to10/11 10/11to11/11 11/11to12/11 12/11to13/11 13/11to14/11 14/11to15/11 15/11to16/11 16/11to17/11 17/11to18/11 18/11to19/11 19/11to20/11 20/11to21/11 21/11to22/11 22/11to23/11 23/11to24/11 24/11to24/12"/>
    </vehicle>
    <vehicle id="83" depart="8.30">
        <route edges="19/19to19/20 19/20to18/20 18/20to17/20 17/20to16/20 16/20to15/20 15/20to14/20 14/20to13/20 13/20to12/20 12/20to11/20 11/20to10/20 10/20to9/20 9/20to8/20 8/20to7/20 7/20to6/20 6/20to5/20 5/20to4/20 4/20to4/19 4/19to4/18 4/18to4/17 4/17to4/16 4/16to4/15 4/15to4/14 4/14to4/13 4/13to4/12 4/12to3/12"/>
    </vehicle>
    <vehicle id="84" depart="8.40">
        <route edges="12/9to12/10 12/10to11/10 11/10to10/10 10/10to9/10 9/10to8/10 8/10to7/10 7/10to6/10 6/10to5/10 5/10to4/10 4/10to3/10 3/10to3/9 3/9to3/8 3/8to3/7 3/7to3/6 3/6to3/5 3/5to3/4 3/4to3/3 3/3to3/2 3/2to4/2"/>
    </vehicle>
    <vehicle id="85" depart="8.50">
        <route edges="5/13to5/14 5/14to6/14 6/14to7/14 7/14to8/14 8/14to9/14 9/14to10/14 10/14to11/14 11/14to12/14 12/14to13/14 13/14to14/14 14/14to15/14 15/14to16/14 16/14to17/14 17/14to18/14 18/14to19/14"/>
    </vehicle>
    <vehicle id="86" depart="8.60">
        <route edges="9/12to9/11 9/11to10/11 10/11to10/10 10/10to10/9 10/9to10/8 10/8to11/8 11/8to12/8 12/8to13/8 13/8to14/8 14/8to15/8 15/8to16/8 16/8to17/8 17/8to18/8 18/8to19/8 19/8to20/8 20/8to21/8 21/8to22/8 22/8to23/8 23/8to24/8 24/8to24/7 24/7to23/7"/>
    </vehicle>
    <vehicle id="87" depart="8.70">
        <route edges="21/17to21/18 21/18to20/18 20/18to19/18 19/18to18/18 18/18to17/18 17/18to16/18 16/18to15/18 15/18to15/17 15/17to15/16 15/16to15/15 15/15to15/14 15/14to15/13 15/13to15/12 15/12to14/12"/>
    </vehicle>
    <vehicle id="88" depart="8.80">
        <route edges="16/10to16/11 16/11to17/11 17/11to17/10 17/10to18/10 18/10to19/10 19/10to20/10 20/10to21/10 21/10to22/10 22/10to22/9 22/9to21/9"/>
    </vehicle>
    <vehicle id="89" depart="8.90">
        <route edges="5/15to6/15 6/15to7/15 7/15to8/15 8/15to9/15 9/15to10/15 10/15to10/16 10/16to11/16 11/16to12/16 12/16to13/16 13/16to14/16 14/16to14/17"/>
    </vehicle>
    <vehicle id="90" depart="9.00">
        <route edges="11/8to11/9 11/9to12/9 12/9to12/8 12/8to12/7 12/7to12/6 12/6to12/5 12/5to12/4 12/4to12/3 12/3to12/2 12/2to13/2 13/2to13/1"/>
    </vehicle>
    <vehicle id="91" depart="9.10">
        <route edges="16/21to16/22 16/22to17/22 17/22to17/21 17/21to17/20 17/20to17/19 17/19to17/18 17/18to17/17 17/17to17/16 17/16to18/16 18/16to19/16 19/16to20/16 20/16to21/16 21/16to22/16 22/16to22/15"/>
    </vehicle>
    <vehicle id="92" depart="9.20">
        <route edges="7/2to8/2 8/2to8/3 8/3to7/3 7/3to6/3 6/3to5/3 5/3to4/3 4/3to3/3 3/3to2/3 2/3to2/4 2/4to2/5"/>
    </vehicle>
    <vehicle id="93" depart="9.30">
        <route edges="3/2to4/2 4/2to5/2 5/2to6/2 6/2to7/2 7/2to8/2 8/2to9/2 9/2to10/2 10/2to10/1 10/1to10/0 10/0to11/0 11/0to12/0"/>
    </vehicle>
    <vehicle id="94" depart="9.40">
        <route edges="20/4to20/5 20/5to19/5 19/5to18/5 18/5to17/5 17/5to16/5 16/5to15/5 15/5to14/5 14/5to13/5 13/5to12/5 12/5to11/5 11/5to10/5 10/5to9/5 9/5to8/5 8/5to7/5 7/5to6/5 6/5to5/5 5/5to5/6 5/6to5/7 5/7to5/8 5/8to5/9 5/9to5/10 5/10to5/11 5/11to5/12 5/12to5/13 5/13to5/14 5/14to5/15 5/15to5/16 5/16to5/17 5/17to5/18 5/18to5/19 5/19to5/20 5/20to5/21 5/21to5/22 5/22to5/23 5/23to5/24 5/24to4/24"/>
    </vehicle>
    <vehicle id="95" depart="9.50">
        <route edges="10/16to10/17 10/17to11/17 11/17to11/16 11/16to12/16 12/16to12/17 12/17to11/17"/>
    </vehicle>
    <vehicle id="96" depart="9.60">
        <route edges="1/20to2/20 2/20to3/20 3/20to4/20 4/20to5/20 5/20to6/20 6/20to7/20 7/20to8/20 8/20to9/20 9/20to10/20 10/20to10/19 10/19to10/18 10/18to10/17 10/17to10/16 10/16to10/15 10/15to10/14 10/14to10/13 10/13to10/12 10/12to10/11 10/11to10/10 10/10to10/9 10/9to10/8 10/8to10/7 10/7to10/6 10/6to10/5 10/5to10/4 10/4to10/3 10/3to10/2 10/2to10/1 10/1to10/0 10/0to11/0 11/0to11/1"/>
    </vehicle>
    <vehicle id="97" depart="9.70">
        <route edges="18/21to18/22 18/22to19/22 19/22to19/21 19/21to19/20 19/20to19/19 19/19to19/18 19/18to19/17 19/17to19/16 19/16to19/15 19/15to19/14 19/14to19/13 19/13to20/13 20/13to21/13 21/13to22/13 22/13to23/13 23/13to23/12"/>
    </vehicle>
    <vehicle id="98" depart="9.80">
        <route edges="20/18to19/18 19/18to18/18 18/18to17/18 17/18to16/18 16/18to15/18 15/18to14/18 14/18to13/18 13/18to12/18 12/18to11/18 11/18to10/18 10/18to9/18 9/18to8/18 8/18to7/18 7/18to6/18 6/18to6/17 6/17to6/16 6/16to6/15 6/15to6/14 6/14to6/13 6/13to6/12 6/12to6/11 6/11to6/10 6/10to7/10"/>
    </vehicle>
    <vehicle id="99" depart="9.90">
        <route edges="0/18to0/17 0/17to1/17 1/17to2/17 2/17to3/17 3/17to4/17 4/17to5/17 5/17to6/17 6/17to7/17 7/17to8/17 8/17to9/17 9/17to10/17 10/17to10/18 10/18to10/19 10/19to10/20 10/20to10/21 10/21to11/21 11/21to12/21 12/21to13/21 13/21to14/21 14/21to15/21 15/21to16/21"/>
    </vehicle>
    <vehicle id="100" depart="10.00">
        <route edges="2/17to2/16 2/16to2/15 2/15to2/14 2/14to2/13 2/13to2/12 2/12to2/11 2/11to2/10 2/10to2/9 2/9to2/8 2/8to2/7 2/7to2/6 2/6to2/5 2/5to2/4 2/4to3/4 3/4to4/4 4/4to5/4 5/4to6/4 6/4to7/4 7/4to8/4 8/4to9/4 9/4to9/5"/>
    </vehicle>
    <vehicle id="101" depart="10.10">
        <route edges="1/1to1/2 1/2to1/3 1/3to1/4 1/4to1/5 1/5to1/6 1/6to2/6 2/6to3/6 3/6to3/7"/>
    </vehicle>
    <vehicle id="102" depart="10.20">
        <route edges="1/5to2/5 2/5to3/5 3/5to4/5 4/5to5/5 5/5to6/5 6/5to7/5 7/5to8/5 8/5to9/5 9/5to10/5 10/5to10/6 10/6to10/7 10/7to10/8 10/8to10/9 10/9to10/10 10/10to10/11 10/11to10/12 10/12to10/13 10/13to10/14 10/14to10/15 10/15to10/16 10/16to11/16 11/16to11/17 11/17to10/17"/>