<?xml version="1.0"?>
<!-- generated on 2021-06-14 18:46:20.271541 by $Id: randomTrips.py 19495 2015-12-02 12:36:28Z behrisch $
  options: -n grid.net.xml -b 0 -e 3602 -s 64 -p 0.3 -r 3602_0_routes.rou.xml
-->
<trips>
    <trip id="0" depart="0.00" from="19/7to20/7" to="22/2to22/1" />
    <trip id="1" depart="0.30" from="18/12to19/12" to="8/10to8/11" />
    <trip id="2" depart="0.60" from="0/21to1/21" to="9/2to9/1" />
    <trip id="3" depart="0.90" from="24/24to24/23" to="5/14to4/14" />
    <trip id="4" depart="1.20" from="5/13to5/14" to="13/13to14/13" />
    <trip id="5" depart="1.50" from="5/22to5/21" to="23/15to23/14" />
    <trip id="6" depart="1.80" from="11/6to11/7" to="6/23to5/23" />
    <trip id="7" depart="2.10" from="19/10to18/10" to="3/13to3/14" />
    <trip id="8" depart="2.40" from="10/16to11/16" to="23/7to23/6" />
    <trip id="9" depart="2.70" from="0/13to0/14" to="1/5to1/6" />
    <trip id="10" depart="3.00" from="10/5to9/5" to="1/18to1/17" />
    <trip id="11" depart="3.30" from="21/2to20/2" to="13/23to13/24" />
    <trip id="12" depart="3.60" from="13/11to12/11" to="5/1to5/2" />
    <trip id="13" depart="3.90" from="4/18to3/18" to="17/9to17/10" />
    <trip id="14" depart="4.20" from="13/20to13/19" to="3/2to3/1" />
    <trip id="15" depart="4.50" from="20/3to19/3" to="17/10to17/11" />
    <trip id="16" depart="4.80" from="15/4to15/3" to="17/13to17/14" />
    <trip id="17" depart="5.10" from="2/13to2/14" to="12/23to13/23" />
    <trip id="18" depart="5.40" from="0/10to0/9" to="19/24to19/23" />
    <trip id="19" depart="5.70" from="13/20to12/20" to="1/23to1/24" />
    <trip id="20" depart="6.00" from="15/12to15/11" to="23/3to23/2" />
    <trip id="21" depart="6.30" from="5/5to5/6" to="0/9to0/10" />
    <trip id="22" depart="6.60" from="5/15to5/16" to="15/2to14/2" />
    <trip id="23" depart="6.90" from="6/20to6/19" to="7/14to8/14" />
    <trip id="24" depart="7.20" from="15/22to14/22" to="22/9to22/10" />
    <trip id="25" depart="7.50" from="21/14to20/14" to="14/10to15/10" />
    <trip id="26" depart="7.80" from="9/11to10/11" to="23/17to22/17" />
    <trip id="27" depart="8.10" from="8/3to8/4" to="11/7to11/6" />
    <trip id="28" depart="8.40" from="14/22to13/22" to="8/10to9/10" />
    <trip id="29" depart="8.70" from="15/23to15/22" to="17/18to17/19" />
    <trip id="30" depart="9.00" from="14/9to13/9" to="5/4to4/4" />
    <trip id="31" depart="9.30" from="15/21to16/21" to="11/18to11/17" />
    <trip id="32" depart="9.60" from="10/9to10/8" to="8/0to9/0" />
    <trip id="33" depart="9.90" from="1/23to1/24" to="12/19to11/19" />
    <trip id="34" depart="10.20" from="16/19to16/18" to="21/0to21/1" />
    <trip id="35" depart="10.50" from="5/7to6/7" to="9/16to8/16" />
    <trip id="36" depart="10.80" from="19/6to18/6" to="23/3to24/3" />
    <trip id="37" depart="11.10" from="16/10to15/10" to="2/6to3/6" />
    <trip id="38" depart="11.40" from="1/13to1/12" to="3/5to2/5" />
    <trip id="39" depart="11.70" from="20/18to19/18" to="23/2to24/2" />
    <trip id="40" depart="12.00" from="6/12to7/12" to="5/24to6/24" />
    <trip id="41" depart="12.30" from="9/21to9/20" to="3/18to2/18" />
    <trip id="42" depart="12.60" from="10/8to10/9" to="16/16to16/15" />
    <trip id="43" depart="12.90" from="22/20to23/20" to="11/18to12/18" />
    <trip id="44" depart="13.20" from="17/5to17/6" to="17/3to17/2" />
    <trip id="45" depart="13.50" from="11/22to12/22" to="18/20to17/20" />
    <trip id="46" depart="13.80" from="23/7to22/7" to="8/16to7/16" />
    <trip id="47" depart="14.10" from="23/19to22/19" to="22/16to22/15" />
    <trip id="48" depart="14.40" from="12/1to12/0" to="9/22to9/23" />
    <trip id="49" depart="14.70" from="4/16to3/16" to="24/16to23/16" />
    <trip id="50" depart="15.00" from="19/8to18/8" to="21/10to22/10" />
    <trip id="51" depart="15.30" from="10/16to10/15" to="15/21to14/21" />
    <trip id="52" depart="15.60" from="0/5to1/5" to="9/3to10/3" />
    <trip id="53" depart="15.90" from="17/11to18/11" to="23/13to23/14" />
    <trip id="54" depart="16.20" from="3/9to2/9" to="19/4to19/3" />
    <trip id="55" depart="16.50" from="9/20to10/20" to="9/21to8/21" />
    <trip id="56" depart="16.80" from="2/14to2/13" to="1/18to1/17" />
    <trip id="57" depart="17.10" from="4/2to4/3" to="2/5to2/4" />
    <trip id="58" depart="17.40" from="0/3to0/4" to="3/16to3/17" />
    <trip id="59" depart="17.70" from="22/11to21/11" to="9/1to10/1" />
    <trip id="60" depart="18.00" from="21/7to21/8" to="18/15to17/15" />
    <trip id="61" depart="18.30" from="11/10to12/10" to="12/14to12/15" />
    <trip id="62" depart="18.60" from="3/21to3/22" to="5/7to6/7" />
    <trip id="63" depart="18.90" from="16/6to15/6" to="21/11to20/11" />
    <trip id="64" depart="19.20" from="13/17to14/17" to="0/10to0/9" />
    <trip id="65" depart="19.50" from="13/4to13/3" to="11/7to11/8" />
    <trip id="66" depart="19.80" from="5/23to5/24" to="10/17to9/17" />
    <trip id="67" depart="20.10" from="13/16to13/15" to="18/22to18/23" />
    <trip id="68" depart="20.40" from="7/7to7/6" to="15/14to15/15" />
    <trip id="69" depart="20.70" from="15/7to15/6" to="4/10to4/11" />
    <trip id="70" depart="21.00" from="19/4to20/4" to="7/6to8/6" />
    <trip id="71" depart="21.30" from="2/5to3/5" to="15/0to15/1" />
    <trip id="72" depart="21.60" from="7/1to6/1" to="22/15to22/14" />
    <trip id="73" depart="21.90" from="19/19to19/20" to="5/5to5/6" />
    <trip id="74" depart="22.20" from="16/17to16/18" to="13/15to14/15" />
    <trip id="75" depart="22.50" from="13/17to13/18" to="14/23to14/22" />
    <trip id="76" depart="22.80" from="4/9to5/9" to="5/19to5/18" />
    <trip id="77" depart="23.10" from="12/1to12/2" to="1/11to0/11" />
    <trip id="78" depart="23.40" from="12/5to12/6" to="0/16to0/17" />
    <trip id="79" depart="23.70" from="21/3to22/3" to="16/18to16/19" />
    <trip id="80" depart="24.00" from="22/6to22/5" to="12/16to11/16" />
    <trip id="81" depart="24.30" from="23/16to24/16" to="3/9to2/9" />
    <trip id="82" depart="24.60" from="15/17to16/17" to="9/17to9/18" />
    <trip id="83" depart="24.90" from="15/12to14/12" to="9/6to9/7" />
    <trip id="84" depart="25.20" from="9/21to9/22" to="7/2to6/2" />
    <trip id="85" depart="25.50" from="18/22to18/21" to="5/17to5/18" />
    <trip id="86" depart="25.80" from="8/16to8/17" to="16/9to17/9" />
    <trip id="87" depart="26.10" from="4/15to5/15" to="16/6to15/6" />
    <trip id="88" depart="26.40" from="14/18to14/19" to="7/17to7/16" />
    <trip id="89" depart="26.70" from="3/0to2/0" to="3/9to3/8" />
    <trip id="90" depart="27.00" from="10/10to10/11" to="18/1to18/0" />
    <trip id="91" depart="27.30" from="1/13to1/14" to="2/3to3/3" />
    <trip id="92" depart="27.60" from="20/6to21/6" to="17/4to18/4" />
    <trip id="93" depart="27.90" from="19/23to19/22" to="19/13to19/14" />
    <trip id="94" depart="28.20" from="0/5to1/5" to="17/4to18/4" />
    <trip id="95" depart="28.50" from="3/22to3/21" to="20/0to20/1" />
    <trip id="96" depart="28.80" from="0/16to1/16" to="13/16to13/17" />
    <trip id="97" depart="29.10" from="13/17to13/18" to="0/5to0/4" />
    <trip id="98" depart="29.40" from="17/3to16/3" to="14/11to14/10" />
    <trip id="99" depart="29.70" from="19/10to19/11" to="3/24to3/23" />
    <trip id="100" depart="30.00" from="9/16to8/16" to="20/3to20/4" />
    <trip id="101" depart="30.30" from="11/5to11/4" to="7/22to8/22" />
    <trip id="102" depart="30.60" from="8/12to9/12" to="4/22to3/22" />
    <trip id="103" depart="30.90" from="13/8to14/8" to="20/11to20/12" />
    <trip id="104" depart="31.20" from="14/15to15/15" to="23/17to23/18" />
    <trip id="105" depart="31.50" from="7/2to8/2" to="24/23to23/23" />
    <trip id="106" depart="31.80" from="2/5to3/5" to="24/23to24/24" />
    <trip id="107" depart="32.10" from="12/17to11/17" to="18/7to18/6" />
    <trip id="108" depart="32.40" from="1/24to1/23" to="1/4to2/4" />
    <trip id="109" depart="32.70" from="1/3to1/4" to="18/7to18/6" />
    <trip id="110" depart="33.00" from="15/11to14/11" to="4/9to4/10" />
    <trip id="111" depart="33.30" from="12/3to13/3" to="2/18to2/17" />
    <trip id="112" depart="33.60" from="20/14to20/13" to="16/13to17/13" />
    <trip id="113" depart="33.90" from="15/8to14/8" to="17/11to16/11" />
    <trip id="114" depart="34.20" from="22/21to23/21" to="7/10to6/10" />
    <trip id="115" depart="34.50" from="19/18to18/18" to="9/22to10/22" />
    <trip id="116" depart="34.80" from="11/19to12/19" to="3/2to2/2" />
    <trip id="117" depart="35.10" from="21/9to22/9" to="3/14to3/15" />
    <trip id="118" depart="35.40" from="10/12to9/12" to="10/7to9/7" />
    <trip id="119" depart="35.70" from="0/12to0/11" to="12/24to11/24" />
    <trip id="120" depart="36.00" from="21/19to20/19" to="8/7to9/7" />
    <trip id="121" depart="36.30" from="2/16to1/16" to="4/17to4/16" />
    <trip id="122" depart="36.60" from="0/21to0/20" to="0/7to0/8" />
    <trip id="123" depart="36.90" from="17/17to18/17" to="3/22to3/23" />
    <trip id="124" depart="37.20" from="11/18to11/17" to="23/8to23/9" />
    <trip id="125" depart="37.50" from="9/14to9/13" to="23/11to24/11" />
    <trip id="126" depart="37.80" from="5/16to5/15" to="19/24to18/24" />
    <trip id="127" depart="38.10" from="8/19to9/19" to="7/14to7/15" />
    <trip id="128" depart="38.40" from="7/16to8/16" to="19/17to18/17" />
    <trip id="129" depart="38.70" from="22/1to22/2" to="17/20to18/20" />
    <trip id="130" depart="39.00" from="13/22to13/23" to="8/13to8/14" />
    <trip id="131" depart="39.30" from="18/24to19/24" to="12/20to12/21" />
    <trip id="132" depart="39.60" from="10/10to10/9" to="5/20to6/20" />
    <trip id="133" depart="39.90" from="17/23to17/22" to="1/0to1/1" />
    <trip id="134" depart="40.20" from="20/15to20/16" to="18/10to19/10" />
    <trip id="135" depart="40.50" from="2/10to3/10" to="16/15to16/16" />
    <trip id="136" depart="40.80" from="19/6to20/6" to="2/1to3/1" />
    <trip id="137" depart="41.10" from="18/10to17/10" to="12/20to13/20" />
    <trip id="138" depart="41.40" from="1/17to1/16" to="20/22to21/22" />
    <trip id="139" depart="41.70" from="19/21to20/21" to="1/3to2/3" />
    <trip id="140" depart="42.00" from="0/6to1/6" to="16/14to15/14" />
    <trip id="141" depart="42.30" from="11/19to11/20" to="13/22to13/23" />
    <trip id="142" depart="42.60" from="19/7to18/7" to="23/13to22/13" />
    <trip id="143" depart="42.90" from="1/23to2/23" to="23/10to23/11" />
    <trip id="144" depart="43.20" from="22/9to23/9" to="14/24to13/24" />
    <trip id="145" depart="43.50" from="2/14to1/14" to="9/1to8/1" />
    <trip id="146" depart="43.80" from="9/18to9/17" to="24/14to24/13" />
    <trip id="147" depart="44.10" from="18/6to17/6" to="18/19to18/18" />
    <trip id="148" depart="44.40" from="23/5to22/5" to="9/3to8/3" />
    <trip id="149" depart="44.70" from="19/2to18/2" to="23/15to24/15" />
    <trip id="150" depart="45.00" from="15/17to15/16" to="11/11to11/10" />
    <trip id="151" depart="45.30" from="11/3to10/3" to="14/10to14/9" />
    <trip id="152" depart="45.60" from="3/6to3/7" to="13/20to13/21" />
    <trip id="153" depart="45.90" from="11/6to11/7" to="16/3to15/3" />
    <trip id="154" depart="46.20" from="4/21to3/21" to="9/10to9/11" />
    <trip id="155" depart="46.50" from="20/10to19/10" to="9/15to10/15" />
    <trip id="156" depart="46.80" from="15/0to16/0" to="9/8to9/7" />
    <trip id="157" depart="47.10" from="8/7to9/7" to="3/2to2/2" />
    <trip id="158" depart="47.40" from="8/19to7/19" to="6/16to6/17" />
    <trip id="159" depart="47.70" from="5/24to4/24" to="1/19to1/18" />
    <trip id="160" depart="48.00" from="19/0to19/1" to="1/21to0/21" />
    <trip id="161" depart="48.30" from="4/15to4/16" to="20/13to19/13" />
    <trip id="162" depart="48.60" from="14/18to13/18" to="21/16to20/16" />
    <trip id="163" depart="48.90" from="3/8to2/8" to="5/12to5/13" />
    <trip id="164" depart="49.20" from="4/17to3/17" to="19/8to19/9" />
    <trip id="165" depart="49.50" from="5/13to5/12" to="16/2to16/1" />
    <trip id="166" depart="49.80" from="22/18to23/18" to="11/6to11/7" />
    <trip id="167" depart="50.10" from="21/6to20/6" to="17/24to16/24" />
    <trip id="168" depart="50.40" from="19/10to18/10" to="10/1to9/1" />
    <trip id="169" depart="50.70" from="5/21to5/22" to="11/13to11/14" />
    <trip id="170" depart="51.00" from="3/20to3/21" to="20/4to19/4" />
    <trip id="171" depart="51.30" from="9/9to10/9" to="8/5to8/6" />
    <trip id="172" depart="51.60" from="8/11to8/12" to="5/21to6/21" />
    <trip id="173" depart="51.90" from="1/4to1/3" to="5/17to5/18" />
    <trip id="174" depart="52.20" from="0/22to0/21" to="10/6to11/6" />
    <trip id="175" depart="52.50" from="4/16to5/16" to="12/23to12/22" />
    <trip id="176" depart="52.80" from="20/6to20/5" to="8/20to8/19" />
    <trip id="177" depart="53.10" from="12/14to13/14" to="1/22to1/21" />
    <trip id="178" depart="53.40" from="15/0to14/0" to="11/15to11/14" />
    <trip id="179" depart="53.70" from="2/12to2/11" to="6/9to6/10" />
    <trip id="180" depart="54.00" from="3/20to3/19" to="22/6to21/6" />
    <trip id="181" depart="54.30" from="20/16to19/16" to="3/20to4/20" />
    <trip id="182" depart="54.60" from="24/0to23/0" to="20/24to21/24" />
    <trip id="183" depart="54.90" from="18/14to18/13" to="16/21to15/21" />
    <trip id="184" depart="55.20" from="16/16to17/16" to="24/15to23/15" />
    <trip id="185" depart="55.50" from="12/18to13/18" to="0/1to0/2" />
    <trip id="186" depart="55.80" from="9/8to9/7" to="9/2to9/1" />
    <trip id="187" depart="56.10" from="23/13to24/13" to="12/4to12/3" />
    <trip id="188" depart="56.40" from="17/22to17/23" to="5/8to5/7" />
    <trip id="189" depart="56.70" from="18/7to19/7" to="3/2to3/3" />
    <trip id="190" depart="57.00" from="19/15to19/16" to="21/0to22/0" />
    <trip id="191" depart="57.30" from="2/5to2/6" to="18/15to17/15" />
    <trip id="192" depart="57.60" from="22/14to22/15" to="11/5to11/6" />
    <trip id="193" depart="57.90" from="9/7to10/7" to="1/8to0/8" />
    <trip id="194" depart="58.20" from="16/22to17/22" to="19/17to20/17" />
    <trip id="195" depart="58.50" from="15/20to14/20" to="11/2to12/2" />
    <trip id="196" depart="58.80" from="17/14to17/13" to="24/21to24/22" />
    <trip id="197" depart="59.10" from="24/15to24/16" to="9/4to9/5" />
    <trip id="198" depart="59.40" from="6/7to6/8" to="6/10to5/10" />
    <trip id="199" depart="59.70" from="20/5to19/5" to="14/12to14/13" />
    <trip id="200" depart="60.00" from="16/4to16/3" to="1/24to1/23" />
    <trip id="201" depart="60.30" from="9/13to10/13" to="10/18to10/17" />
    <trip id="202" depart="60.60" from="6/18to5/18" to="11/4to12/4" />
    <trip id="203" depart="60.90" from="19/7to18/7" to="11/4to11/5" />
    <trip id="204" depart="61.20" from="16/1to15/1" to="23/1to24/1" />
    <trip id="205" depart="61.50" from="20/21to20/20" to="17/22to16/22" />
    <trip id="206" depart="61.80" from="15/10to16/10" to="6/6to6/5" />
    <trip id="207" depart="62.10" from="2/19to1/19" to="8/1to7/1" />
    <trip id="208" depart="62.40" from="24/9to23/9" to="17/1to18/1" />
    <trip id="209" depart="62.70" from="9/12to9/11" to="1/9to2/9" />
    <trip id="210" depart="63.00" from="6/23to7/23" to="22/5to22/4" />
    <trip id="211" depart="63.30" from="11/9to12/9" to="12/13to11/13" />
    <trip id="212" depart="63.60" from="22/20to22/21" to="1/12to1/13" />
    <trip id="213" depart="63.90" from="2/21to1/21" to="17/7to16/7" />
    <trip id="214" depart="64.20" from="19/0to20/0" to="21/14to22/14" />
    <trip id="215" depart="64.50" from="21/14to22/14" to="12/20to12/21" />
    <trip id="216" depart="64.80" from="11/11to10/11" to="7/14to6/14" />
    <trip id="217" depart="65.10" from="1/5to1/4" to="23/20to24/20" />
    <trip id="218" depart="65.40" from="20/22to19/22" to="24/21to24/20" />
    <trip id="219" depart="65.70" from="19/12to20/12" to="24/5to23/5" />
    <trip id="220" depart="66.00" from="18/3to19/3" to="17/19to17/18" />
    <trip id="221" depart="66.30" from="13/10to13/9" to="7/11to8/11" />
    <trip id="222" depart="66.60" from="2/6to1/6" to="16/18to16/19" />
    <trip id="223" depart="66.90" from="6/19to7/19" to="21/12to21/13" />
    <trip id="224" depart="67.20" from="16/9to16/10" to="4/17to4/16" />
    <trip id="225" depart="67.50" from="12/21to11/21" to="19/24to19/23" />
    <trip id="226" depart="67.80" from="1/16to1/17" to="14/9to15/9" />
    <trip id="227" depart="68.10" from="18/22to17/22" to="5/21to4/21" />
    <trip id="228" depart="68.40" from="11/18to12/18" to="1/16to1/15" />
    <trip id="229" depart="68.70" from="8/7to9/7" to="5/3to6/3" />
    <trip id="230" depart="69.00" from="8/24to7/24" to="18/3to18/2" />
    <trip id="231" depart="69.30" from="11/22to10/22" to="17/6to18/6" />
    <trip id="232" depart="69.60" from="4/20to3/20" to="9/13to9/12" />
    <trip id="233" depart="69.90" from="9/24to8/24" to="4/10to5/10" />
    <trip id="234" depart="70.20" from="23/3to24/3" to="14/5to15/5" />
    <trip id="235" depart="70.50" from="7/2to6/2" to="18/1to19/1" />
    <trip id="236" depart="70.80" from="22/18to21/18" to="8/0to8/1" />
    <trip id="237" depart="71.10" from="8/19to8/18" to="17/17to17/18" />
    <trip id="238" depart="71.40" from="3/21to2/21" to="2/4to2/3" />
    <trip id="239" depart="71.70" from="10/15to10/14" to="15/24to15/23" />
    <trip id="240" depart="72.00" from="24/16to24/17" to="18/0to18/1" />
    <trip id="241" depart="72.30" from="8/5to8/6" to="7/1to7/2" />
    <trip id="242" depart="72.60" from="21/16to21/15" to="3/22to3/21" />
    <trip id="243" depart="72.90" from="0/8to0/7" to="2/2to2/1" />
    <trip id="244" depart="73.20" from="3/18to3/19" to="11/6to11/5" />
    <trip id="245" depart="73.50" from="17/23to18/23" to="16/16to16/17" />
    <trip id="246" depart="73.80" from="17/6to16/6" to="0/5to1/5" />
    <trip id="247" depart="74.10" from="4/19to4/18" to="22/11to22/10" />
    <trip id="248" depart="74.40" from="8/4to8/5" to="7/12to6/12" />
    <trip id="249" depart="74.70" from="12/3to12/4" to="6/2to6/1" />
    <trip id="250" depart="75.00" from="21/15to20/15" to="14/10to15/10" />
    <trip id="251" depart="75.30" from="22/19to22/20" to="18/13to18/12" />
    <trip id="252" depart="75.60" from="20/13to21/13" to="24/5to23/5" />
    <trip id="253" depart="75.90" from="18/10to18/11" to="13/5to13/4" />
    <trip id="254" depart="76.20" from="22/16to21/16" to="2/4to3/4" />
    <trip id="255" depart="76.50" from="10/9to11/9" to="6/14to7/14" />
    <trip id="256" depart="76.80" from="10/8to10/7" to="11/13to11/14" />
    <trip id="257" depart="77.10" from="19/22to18/22" to="22/7to22/8" />
    <trip id="258" depart="77.40" from="1/8to1/7" to="3/10to4/10" />
    <trip id="259" depart="77.70" from="5/17to4/17" to="21/2to21/3" />
    <trip id="260" depart="78.00" from="19/16to20/16" to="11/12to11/13" />
    <trip id="261" depart="78.30" from="0/13to0/14" to="14/22to14/21" />
    <trip id="262" depart="78.60" from="20/19to21/19" to="20/14to19/14" />
    <trip id="263" depart="78.90" from="21/10to21/11" to="16/18to15/18" />
    <trip id="264" depart="79.20" from="0/9to1/9" to="2/15to3/15" />
    <trip id="265" depart="79.50" from="23/19to24/19" to="10/17to11/17" />
    <trip id="266" depart="79.80" from="5/4to5/3" to="4/7to4/8" />
    <trip id="267" depart="80.10" from="22/3to22/4" to="3/13to4/13" />
    <trip id="268" depart="80.40" from="24/18to23/18" to="22/23to22/24" />
    <trip id="269" depart="80.70" from="2/16to2/15" to="3/3to2/3" />
    <trip id="270" depart="81.00" from="23/3to23/2" to="23/23to23/24" />
    <trip id="271" depart="81.30" from="10/3to10/2" to="10/7to10/6" />
    <trip id="272" depart="81.60" from="4/20to4/21" to="19/1to20/1" />
    <trip id="273" depart="81.90" from="5/20to4/20" to="12/21to12/20" />
    <trip id="274" depart="82.20" from="23/10to23/11" to="19/22to19/21" />
    <trip id="275" depart="82.50" from="18/14to18/15" to="22/21to23/21" />
    <trip id="276" depart="82.80" from="21/4to22/4" to="22/20to23/20" />
    <trip id="277" depart="83.10" from="18/4to18/5" to="16/23to16/24" />
    <trip id="278" depart="83.40" from="3/3to2/3" to="23/20to23/19" />
    <trip id="279" depart="83.70" from="17/9to17/10" to="10/8to10/7" />
    <trip id="280" depart="84.00" from="16/20to17/20" to="10/4to11/4" />
    <trip id="281" depart="84.30" from="12/23to12/24" to="9/0to8/0" />
    <trip id="282" depart="84.60" from="6/21to7/21" to="8/20to8/19" />
    <trip id="283" depart="84.90" from="9/4to10/4" to="19/21to18/21" />
    <trip id="284" depart="85.20" from="12/5to13/5" to="10/24to11/24" />
    <trip id="285" depart="85.50" from="12/21to13/21" to="3/0to3/1" />
    <trip id="286" depart="85.80" from="21/6to22/6" to="2/2to2/1" />
    <trip id="287" depart="86.10" from="20/16to20/15" to="20/23to19/23" />
    <trip id="288" depart="86.40" from="12/7to12/8" to="14/11to14/12" />
    <trip id="289" depart="86.70" from="11/2to11/3" to="23/11to22/11" />
    <trip id="290" depart="87.00" from="9/24to9/23" to="13/16to14/16" />
    <trip id="291" depart="87.30" from="19/5to19/6" to="15/6to16/6" />
    <trip id="292" depart="87.60" from="10/24to9/24" to="12/16to11/16" />
    <trip id="293" depart="87.90" from="9/16to9/15" to="15/2to16/2" />
    <trip id="294" depart="88.20" from="15/0to15/1" to="19/20to18/20" />
    <trip id="295" depart="88.50" from="19/14to20/14" to="19/18to19/17" />
    <trip id="296" depart="88.80" from="11/7to12/7" to="22/11to23/11" />
    <trip id="297" depart="89.10" from="4/3to4/2" to="19/21to19/22" />
    <trip id="298" depart="89.40" from="7/7to6/7" to="12/23to13/23" />
    <trip id="299" depart="89.70" from="21/21to21/22" to="6/22to6/23" />
    <trip id="300" depart="90.00" from="18/22to18/21" to="5/15to4/15" />
    <trip id="301" depart="90.30" from="16/7to17/7" to="1/8to1/9" />
    <trip id="302" depart="90.60" from="0/1to0/0" to="5/12to4/12" />
    <trip id="303" depart="90.90" from="12/16to11/16" to="14/6to14/7" />
    <trip id="304" depart="91.20" from="4/13to4/14" to="8/17to7/17" />
    <trip id="305" depart="91.50" from="10/18to11/18" to="22/2to22/3" />
    <trip id="306" depart="91.80" from="3/11to3/10" to="1/20to0/20" />
    <trip id="307" depart="92.10" from="11/13to10/13" to="23/16to22/16" />
    <trip id="308" depart="92.40" from="7/20to7/19" to="19/16to19/17" />
    <trip id="309" depart="92.70" from="8/18to8/19" to="1/14to1/15" />
    <trip id="310" depart="93.00" from="3/11to3/10" to="13/20to13/19" />
    <trip id="311" depart="93.30" from="6/15to7/15" to="20/16to19/16" />
    <trip id="312" depart="93.60" from="0/21to1/21" to="18/5to18/6" />
    <trip id="313" depart="93.90" from="20/19to19/19" to="8/14to7/14" />
    <trip id="314" depart="94.20" from="11/11to11/10" to="7/5to8/5" />
    <trip id="315" depart="94.50" from="4/21to3/21" to="2/11to2/10" />
    <trip id="316" depart="94.80" from="11/21to12/21" to="4/17to4/16" />
    <trip id="317" depart="95.10" from="7/17to8/17" to="18/6to18/5" />
    <trip id="318" depart="95.40" from="5/15to5/14" to="14/10to14/11" />
    <trip id="319" depart="95.70" from="20/17to20/16" to="8/8to8/9" />
    <trip id="320" depart="96.00" from="23/22to22/22" to="2/21to2/20" />
    <trip id="321" depart="96.30" from="17/22to17/23" to="8/20to9/20" />
    <trip id="322" depart="96.60" from="13/15to12/15" to="20/3to19/3" />
    <trip id="323" depart="96.90" from="4/21to3/21" to="10/4to11/4" />
    <trip id="324" depart="97.20" from="11/11to11/10" to="19/19to19/18" />
    <trip id="325" depart="97.50" from="1/16to1/15" to="12/23to12/22" />
    <trip id="326" depart="97.80" from="18/23to18/24" to="6/2to5/2" />
    <trip id="327" depart="98.10" from="20/2to20/3" to="6/17to6/18" />
    <trip id="328" depart="98.40" from="4/13to3/13" to="20/6to19/6" />
    <trip id="329" depart="98.70" from="4/24to4/23" to="9/9to8/9" />
    <trip id="330" depart="99.00" from="10/6to10/7" to="0/4to0/3" />
    <trip id="331" depart="99.30" from="7/5to7/4" to="21/15to22/15" />
    <trip id="332" depart="99.60" from="6/15to7/15" to="20/23to20/24" />
    <trip id="333" depart="99.90" from="11/3to11/2" to="23/24to24/24" />
    <trip id="334" depart="100.20" from="3/0to4/0" to="24/23to24/24" />
    <trip id="335" depart="100.50" from="0/2to0/1" to="11/17to11/18" />
    <trip id="336" depart="100.80" from="19/20to19/21" to="22/24to22/23" />
    <trip id="337" depart="101.10" from="4/9to3/9" to="20/3to21/3" />
    <trip id="338" depart="101.40" from="15/10to16/10" to="15/23to16/23" />
    <trip id="339" depart="101.70" from="10/13to11/13" to="23/1to24/1" />
    <trip id="340" depart="102.00" from="10/4to10/3" to="18/24to17/24" />
    <trip id="341" depart="102.30" from="18/9to18/8" to="21/18to22/18" />
    <trip id="342" depart="102.60" from="23/24to23/23" to="21/20to22/20" />
    <trip id="343" depart="102.90" from="22/22to22/21" to="9/16to9/17" />
    <trip id="344" depart="103.20" from="16/19to16/20" to="12/22to13/22" />
    <trip id="345" depart="103.50" from="7/5to8/5" to="22/7to23/7" />
    <trip id="346" depart="103.80" from="12/11to12/10" to="1/10to1/11" />
    <trip id="347" depart="104.10" from="5/14to6/14" to="15/16to14/16" />
    <trip id="348" depart="104.40" from="13/8to13/7" to="23/22to23/21" />
    <trip id="349" depart="104.70" from="21/13to20/13" to="14/13to14/14" />
    <trip id="350" depart="105.00" from="3/5to3/4" to="4/11to3/11" />
    <trip id="351" depart="105.30" from="20/3to21/3" to="21/18to21/17" />
    <trip id="352" depart="105.60" from="19/2to19/3" to="2/16to1/16" />
    <trip id="353" depart="105.90" from="23/6to24/6" to="6/14to6/15" />
    <trip id="354" depart="106.20" from="20/7to20/8" to="23/12to23/11" />
    <trip id="355" depart="106.50" from="5/8to6/8" to="19/2to18/2" />
    <trip id="356" depart="106.80" from="7/6to7/7" to="2/14to3/14" />
    <trip id="357" depart="107.10" from="14/4to14/3" to="10/17to10/18" />
    <trip id="358" depart="107.40" from="6/1to6/0" to="17/21to17/22" />
    <trip id="359" depart="107.70" from="3/1to3/2" to="9/17to9/18" />
    <trip id="360" depart="108.00" from="9/4to9/5" to="0/17to0/18" />
    <trip id="361" depart="108.30" from="4/19to4/18" to="17/3to18/3" />
    <trip id="362" depart="108.60" from="1/11to1/12" to="7/6to7/7" />
    <trip id="363" depart="108.90" from="23/21to23/22" to="9/13to9/12" />
    <trip id="364" depart="109.20" from="18/20to18/19" to="9/13to10/13" />
    <trip id="365" depart="109.50" from="21/23to22/23" to="24/10to24/9" />
    <trip id="366" depart="109.80" from="12/20to13/20" to="5/10to5/9" />
    <trip id="367" depart="110.10" from="23/23to23/22" to="1/12to0/12" />
    <trip id="368" depart="110.40" from="22/1to22/0" to="0/23to0/24" />
    <trip id="369" depart="110.70" from="14/20to14/19" to="5/22to4/22" />
    <trip id="370" depart="111.00" from="7/5to7/6" to="15/19to14/19" />
    <trip id="371" depart="111.30" from="19/6to19/5" to="4/23to5/23" />
    <trip id="372" depart="111.60" from="5/14to6/14" to="19/6to19/7" />
    <trip id="373" depart="111.90" from="7/13to7/12" to="8/12to7/12" />
    <trip id="374" depart="112.20" from="16/14to17/14" to="10/2to10/1" />
    <trip id="375" depart="112.50" from="10/17to9/17" to="15/4to14/4" />
    <trip id="376" depart="112.80" from="9/5to8/5" to="18/22to18/21" />
    <trip id="377" depart="113.10" from="12/15to12/14" to="19/8to20/8" />
    <trip id="378" depart="113.40" from="1/8to1/9" to="2/23to2/24" />
    <trip id="379" depart="113.70" from="15/11to15/12" to="22/14to22/15" />
    <trip id="380" depart="114.00" from="13/8to14/8" to="14/22to14/23" />
    <trip id="381" depart="114.30" from="11/23to11/24" to="20/11to21/11" />
    <trip id="382" depart="114.60" from="2/2to3/2" to="24/2to24/1" />
    <trip id="383" depart="114.90" from="4/2to5/2" to="6/17to7/17" />
    <trip id="384" depart="115.20" from="22/2to23/2" to="21/13to21/14" />
    <trip id="385" depart="115.50" from="14/4to14/3" to="8/15to9/15" />
    <trip id="386" depart="115.80" from="17/16to16/16" to="19/24to20/24" />
    <trip id="387" depart="116.10" from="6/1to6/0" to="22/21to22/22" />
    <trip id="388" depart="116.40" from="14/12to14/13" to="14/13to14/12" />
    <trip id="389" depart="116.70" from="23/9to23/10" to="23/2to23/3" />
    <trip id="390" depart="117.00" from="0/1to0/0" to="6/10to5/10" />
    <trip id="391" depart="117.30" from="12/8to13/8" to="10/3to10/2" />
    <trip id="392" depart="117.60" from="16/17to15/17" to="5/1to6/1" />
    <trip id="393" depart="117.90" from="11/2to12/2" to="21/24to21/23" />
    <trip id="394" depart="118.20" from="18/0to19/0" to="6/13to5/13" />
    <trip id="395" depart="118.50" from="19/11to19/10" to="5/23to6/23" />
    <trip id="396" depart="118.80" from="17/16to16/16" to="9/8to9/7" />
    <trip id="397" depart="119.10" from="2/11to2/10" to="9/5to10/5" />
    <trip id="398" depart="119.40" from="0/7to0/6" to="4/17to3/17" />
    <trip id="399" depart="119.70" from="20/15to20/14" to="16/16to16/15" />
    <trip id="400" depart="120.00" from="16/15to15/15" to="24/7to24/6" />
    <trip id="401" depart="120.30" from="16/11to15/11" to="5/3to5/4" />
    <trip id="402" depart="120.60" from="13/22to13/23" to="10/9to11/9" />
    <trip id="403" depart="120.90" from="21/5to22/5" to="7/14to6/14" />
    <trip id="404" depart="121.20" from="5/16to4/16" to="15/2to15/1" />
    <trip id="405" depart="121.50" from="24/14to23/14" to="10/15to10/14" />
    <trip id="406" depart="121.80" from="12/9to12/8" to="9/22to8/22" />
    <trip id="407" depart="122.10" from="12/19to12/18" to="8/3to8/2" />
    <trip id="408" depart="122.40" from="7/7to6/7" to="17/21to17/22" />
    <trip id="409" depart="122.70" from="2/4to2/5" to="24/5to23/5" />
    <trip id="410" depart="123.00" from="15/0to14/0" to="10/19to10/18" />
    <trip id="411" depart="123.30" from="3/14to2/14" to="19/24to18/24" />
    <trip id="412" depart="123.60" from="0/7to1/7" to="9/22to8/22" />
    <trip id="413" depart="123.90" from="20/13to20/14" to="6/2to7/2" />
    <trip id="414" depart="124.20" from="16/20to16/21" to="10/23to10/22" />